Measurement: Powder, Xray Data XY RAW
Mineral: Strontianite
Rruff sample: R050476
Ideal chemistry: Sr(CO_3_)
Locality: Fidalgo Island, Puget Sound, Washington, USA
Source: California Institute of Technology
Description: Aggregate of colorless spheres
Measured chemistry: (Sr_0.86_Ca_0.14_)CO_3_
Diffraction sample description: Powder
Cell parameters: a: 5.0803 b: 8.362 c: 5.9863 alpha: 90 beta: 90 gamma: 90 volume: 254.32 crystal system: orthorhombic
Filetype: RAW Powder Diffraction Profile
x	intensity
5	34
5.22	25
5.44	38
5.66	22
5.88	22
6.1	22
6.32	21
6.54	18
6.76	7
6.98	21
7.2	16
7.42	20
7.64	17
7.86	15
8.08	11
8.3	12
8.52	10
8.74	13
8.96	4
9.18	10
9.4	8
9.62	12
9.84	16
10.06	13
10.28	10
10.5	12
10.72	10
10.94	9
11.16	9
11.38	9
11.6	13
11.82	6
12.04	5
12.26	9
12.48	7
12.7	7
12.92	10
13.14	14
13.36	6
13.58	8
13.8	6
14.02	10
14.24	3
14.46	9
14.68	11
14.9	6
15.12	7
15.34	9
15.56	10
15.78	15
16	10
16.22	5
16.44	8
16.66	9
16.88	8
17.1	9
17.32	10
17.54	16
17.76	16
17.98	8
18.2	14
18.42	13
18.64	8
18.86	13
19.08	9
19.3	9
19.52	11
19.74	5
19.96	10
20.18	11
20.4	22
20.62	12
20.84	9
21.06	16
21.28	13
21.5	13
21.72	9
21.94	9
22.16	5
22.38	10
22.6	7
22.82	17
23.04	16
23.26	18
23.48	10
23.7	16
23.92	9
24.14	6
24.36	9
24.58	14
24.8	25
25.02	28
25.24	246
25.46	252
25.68	70
25.9	184
26.12	137
26.34	24
26.56	13
26.78	12
27	16
27.22	21
27.44	16
27.66	16
27.88	12
28.1	15
28.32	18
28.54	13
28.76	15
28.98	11
29.2	24
29.42	8
29.64	17
29.86	66
30.08	19
30.3	9
30.52	13
30.74	13
30.96	10
31.18	9
31.4	20
31.62	43
31.84	60
32.06	23
32.28	17
32.5	10
32.72	14
32.94	7
33.16	9
33.38	19
33.6	20
33.82	15
34.04	10
34.26	20
34.48	17
34.7	37
34.92	25
35.14	22
35.36	63
35.58	27
35.8	19
36.02	26
36.24	39
36.46	132
36.68	133
36.9	137
37.12	41
37.34	19
37.56	17
37.78	11
38	12
38.22	8
38.44	10
38.66	14
38.88	8
39.1	15
39.32	14
39.54	11
39.76	15
39.98	20
40.2	13
40.42	10
40.64	14
40.86	12
41.08	15
41.3	14
41.52	42
41.74	42
41.96	22
42.18	11
42.4	13
42.62	16
42.84	14
43.06	11
43.28	18
43.5	25
43.72	19
43.94	23
44.16	42
44.38	170
44.6	66
44.82	18
45.04	15
45.26	19
45.48	23
45.7	28
45.92	63
46.14	45
46.36	25
46.58	15
46.8	51
47.02	54
47.24	19
47.46	18
47.68	23
47.9	68
48.12	84
48.34	36
48.56	10
48.78	17
49	12
49.22	14
49.44	12
49.66	14
49.88	19
50.1	55
50.32	88
50.54	56
50.76	30
50.98	37
51.2	26
51.42	6
51.64	12
51.86	14
52.08	21
52.3	12
52.52	13
52.74	8
52.96	15
53.18	12
53.4	8
53.62	10
53.84	14
54.06	10
54.28	1
54.5	10
54.72	11
54.94	10
55.16	17
55.38	13
55.6	15
55.82	15
56.04	5
56.26	14
56.48	9
56.7	14
56.92	13
57.14	14
57.36	12
57.58	32
57.8	31
58.02	12
58.24	12
58.46	8
58.68	16
58.9	15
59.12	23
59.34	29
59.56	23
59.78	22
60	22
60.22	16
60.44	21
60.66	9
60.88	12
61.1	7
61.32	11
61.54	12
61.76	17
61.98	10
62.2	11
62.42	13
62.64	8
62.86	17
63.08	16
63.3	17
63.52	11
63.74	10
63.96	13
64.18	27
64.4	19
64.62	14
64.84	11
65.06	17
65.28	11
65.5	13
65.72	19
65.94	15
66.16	18
66.38	15
66.6	17
66.82	15
67.04	14
67.26	10
67.48	8
67.7	12
67.92	7
68.14	11
68.36	13
68.58	14
68.8	9
69.02	9
69.24	18
69.46	10
69.68	8
69.9	11
70.12	8
70.34	7
70.56	12
70.78	8
71	8
71.22	14
71.44	10
71.66	8
71.88	14
72.1	11
72.32	21
72.54	21
72.76	21
72.98	17
73.2	12
73.42	24
73.64	19
73.86	17
74.08	21
74.3	37
74.52	33
74.74	27
74.96	22
75.18	17
75.4	17
75.62	23
75.84	27
76.06	16
76.28	11
76.5	23
76.72	16
76.94	12
77.16	9
77.38	17
77.6	14
77.82	10
78.04	7
78.26	15
78.48	14
78.7	11
78.92	7
79.14	11
79.36	13
79.58	12
79.8	6
80.02	6
80.24	14
80.46	10
80.68	16
80.9	12
81.12	12
81.34	16
81.56	11
81.78	9
82	17
82.22	16
82.44	14
82.66	18
82.88	20
83.1	16
83.32	16
83.54	16
83.76	16
83.98	25
84.2	4
84.42	8
84.64	10
84.86	16
85.08	12
85.3	12
85.52	19
85.74	15
85.96	14
86.18	11
86.4	13
86.62	12
86.84	11
87.06	8
87.28	6
87.5	7
87.72	13
87.94	12
88.16	11
88.38	14
88.6	5
88.82	12
89.04	14
89.26	5
89.48	9
89.7	8
89.92	4
